<?xml version="1.0" encoding="UTF-8"?>

<!-- generated on dom 08 dic 2019 09:37:18 -03 by Eclipse SUMO netedit Version 1.3.1
<configuration xmlns:xsi="http://www.w3.org/2001/XMLSchema-instance" xsi:noNamespaceSchemaLocation="http://sumo.dlr.de/xsd/netconvertConfiguration.xsd">

    <input>
        <sumo-net-file value="optimal.net.xml"/>
    </input>

    <output>
        <output-file value="optimal.net.xml"/>
    </output>

    <processing>
        <geometry.max-grade.fix value="false"/>
        <offset.disable-normalization value="true"/>
        <opposites.guess.fix-lengths value="true"/>
        <lefthand value="false"/>
    </processing>

    <junctions>
        <no-turnarounds value="true"/>
        <junctions.corner-detail value="5"/>
        <junctions.limit-turn-speed value="5.5"/>
        <rectangular-lane-cut value="false"/>
    </junctions>

    <pedestrian>
        <walkingareas value="false"/>
    </pedestrian>

</configuration>
-->

<net version="1.3" junctionCornerDetail="5" limitTurnSpeed="5.50" xmlns:xsi="http://www.w3.org/2001/XMLSchema-instance" xsi:noNamespaceSchemaLocation="http://sumo.dlr.de/xsd/net_file.xsd">

    <location netOffset="0.00,0.00" convBoundary="0.00,0.00,400.00,400.00" origBoundary="0.00,0.00,400.00,400.00" projParameter="!"/>

    <edge id=":intersection/0002_0" function="internal">
        <lane id=":intersection/0002_0_0" index="0" speed="6.51" length="9.03" shape="95.20,310.40 94.85,307.95 93.80,306.20 92.05,305.15 89.60,304.80"/>
    </edge>
    <edge id=":intersection/0002_1" function="internal">
        <lane id=":intersection/0002_1_0" index="0" speed="7.33" length="11.73" shape="95.20,310.40 94.85,306.55 93.80,303.80 92.05,302.15 89.60,301.60"/>
    </edge>
    <edge id=":intersection/0002_2" function="internal">
        <lane id=":intersection/0002_2_0" index="0" speed="13.89" length="20.96" shape="95.20,310.40 95.20,289.60"/>
        <lane id=":intersection/0002_2_1" index="1" speed="13.89" length="20.96" shape="95.20,310.40 95.70,304.34 96.80,300.00 97.90,295.66 98.40,289.60"/>
    </edge>
    <edge id=":intersection/0002_4" function="internal">
        <lane id=":intersection/0002_4_0" index="0" speed="9.84" length="21.99" shape="98.40,310.40 99.15,303.75 101.40,299.00 105.15,296.15 110.40,295.20"/>
    </edge>
    <edge id=":intersection/0002_5" function="internal">
        <lane id=":intersection/0002_5_0" index="0" speed="9.26" length="19.35" shape="98.40,310.40 99.15,305.15 101.40,301.40 105.15,299.15 110.40,298.40"/>
    </edge>
    <edge id=":intersection/0002_6" function="internal">
        <lane id=":intersection/0002_6_0" index="0" speed="6.51" length="9.03" shape="110.40,304.80 107.95,305.15 106.20,306.20 105.15,307.95 104.80,310.40"/>
    </edge>
    <edge id=":intersection/0002_7" function="internal">
        <lane id=":intersection/0002_7_0" index="0" speed="7.33" length="11.73" shape="110.40,304.80 106.55,305.15 103.80,306.20 102.15,307.95 101.60,310.40"/>
    </edge>
    <edge id=":intersection/0002_8" function="internal">
        <lane id=":intersection/0002_8_0" index="0" speed="13.89" length="20.96" shape="110.40,304.80 89.60,304.80"/>
        <lane id=":intersection/0002_8_1" index="1" speed="13.89" length="20.96" shape="110.40,304.80 104.34,304.30 100.00,303.20 95.66,302.10 89.60,301.60"/>
    </edge>
    <edge id=":intersection/0002_10" function="internal">
        <lane id=":intersection/0002_10_0" index="0" speed="9.84" length="21.99" shape="110.40,301.60 103.75,300.85 99.00,298.60 96.15,294.85 95.20,289.60"/>
    </edge>
    <edge id=":intersection/0002_11" function="internal">
        <lane id=":intersection/0002_11_0" index="0" speed="9.26" length="19.35" shape="110.40,301.60 105.15,300.85 101.40,298.60 99.15,294.85 98.40,289.60"/>
    </edge>
    <edge id=":intersection/0002_12" function="internal">
        <lane id=":intersection/0002_12_0" index="0" speed="6.51" length="9.03" shape="104.80,289.60 105.15,292.05 106.20,293.80 107.95,294.85 110.40,295.20"/>
    </edge>
    <edge id=":intersection/0002_13" function="internal">
        <lane id=":intersection/0002_13_0" index="0" speed="7.33" length="11.73" shape="104.80,289.60 105.15,293.45 106.20,296.20 107.95,297.85 110.40,298.40"/>
    </edge>
    <edge id=":intersection/0002_14" function="internal">
        <lane id=":intersection/0002_14_0" index="0" speed="13.89" length="20.96" shape="104.80,289.60 104.80,310.40"/>
        <lane id=":intersection/0002_14_1" index="1" speed="13.89" length="20.96" shape="104.80,289.60 104.30,295.66 103.20,300.00 102.10,304.34 101.60,310.40"/>
    </edge>
    <edge id=":intersection/0002_16" function="internal">
        <lane id=":intersection/0002_16_0" index="0" speed="9.84" length="21.99" shape="101.60,289.60 100.85,296.25 98.60,301.00 94.85,303.85 89.60,304.80"/>
    </edge>
    <edge id=":intersection/0002_17" function="internal">
        <lane id=":intersection/0002_17_0" index="0" speed="9.26" length="19.35" shape="101.60,289.60 100.85,294.85 98.60,298.60 94.85,300.85 89.60,301.60"/>
    </edge>
    <edge id=":intersection/0002_18" function="internal">
        <lane id=":intersection/0002_18_0" index="0" speed="6.51" length="9.03" shape="89.60,295.20 92.05,294.85 93.80,293.80 94.85,292.05 95.20,289.60"/>
    </edge>
    <edge id=":intersection/0002_19" function="internal">
        <lane id=":intersection/0002_19_0" index="0" speed="7.33" length="11.73" shape="89.60,295.20 93.45,294.85 96.20,293.80 97.85,292.05 98.40,289.60"/>
    </edge>
    <edge id=":intersection/0002_20" function="internal">
        <lane id=":intersection/0002_20_0" index="0" speed="13.89" length="20.96" shape="89.60,295.20 110.40,295.20"/>
        <lane id=":intersection/0002_20_1" index="1" speed="13.89" length="20.96" shape="89.60,295.20 95.66,295.70 100.00,296.80 104.34,297.90 110.40,298.40"/>
    </edge>
    <edge id=":intersection/0002_22" function="internal">
        <lane id=":intersection/0002_22_0" index="0" speed="9.84" length="21.99" shape="89.60,298.40 96.25,299.15 101.00,301.40 103.85,305.15 104.80,310.40"/>
    </edge>
    <edge id=":intersection/0002_23" function="internal">
        <lane id=":intersection/0002_23_0" index="0" speed="9.26" length="19.35" shape="89.60,298.40 94.85,299.15 98.60,301.40 100.85,305.15 101.60,310.40"/>
    </edge>
    <edge id=":intersection/0003_0" function="internal">
        <lane id=":intersection/0003_0_0" index="0" speed="6.51" length="9.03" shape="195.20,310.40 194.85,307.95 193.80,306.20 192.05,305.15 189.60,304.80"/>
    </edge>
    <edge id=":intersection/0003_1" function="internal">
        <lane id=":intersection/0003_1_0" index="0" speed="7.33" length="11.73" shape="195.20,310.40 194.85,306.55 193.80,303.80 192.05,302.15 189.60,301.60"/>
    </edge>
    <edge id=":intersection/0003_2" function="internal">
        <lane id=":intersection/0003_2_0" index="0" speed="13.89" length="20.96" shape="195.20,310.40 195.20,289.60"/>
        <lane id=":intersection/0003_2_1" index="1" speed="13.89" length="20.96" shape="195.20,310.40 195.70,304.34 196.80,300.00 197.90,295.66 198.40,289.60"/>
    </edge>
    <edge id=":intersection/0003_4" function="internal">
        <lane id=":intersection/0003_4_0" index="0" speed="9.84" length="21.99" shape="198.40,310.40 199.15,303.75 201.40,299.00 205.15,296.15 210.40,295.20"/>
    </edge>
    <edge id=":intersection/0003_5" function="internal">
        <lane id=":intersection/0003_5_0" index="0" speed="9.26" length="19.35" shape="198.40,310.40 199.15,305.15 201.40,301.40 205.15,299.15 210.40,298.40"/>
    </edge>
    <edge id=":intersection/0003_6" function="internal">
        <lane id=":intersection/0003_6_0" index="0" speed="6.51" length="9.03" shape="210.40,304.80 207.95,305.15 206.20,306.20 205.15,307.95 204.80,310.40"/>
    </edge>
    <edge id=":intersection/0003_7" function="internal">
        <lane id=":intersection/0003_7_0" index="0" speed="7.33" length="11.73" shape="210.40,304.80 206.55,305.15 203.80,306.20 202.15,307.95 201.60,310.40"/>
    </edge>
    <edge id=":intersection/0003_8" function="internal">
        <lane id=":intersection/0003_8_0" index="0" speed="13.89" length="20.96" shape="210.40,304.80 189.60,304.80"/>
        <lane id=":intersection/0003_8_1" index="1" speed="13.89" length="20.96" shape="210.40,304.80 204.34,304.30 200.00,303.20 195.66,302.10 189.60,301.60"/>
    </edge>
    <edge id=":intersection/0003_10" function="internal">
        <lane id=":intersection/0003_10_0" index="0" speed="9.84" length="21.99" shape="210.40,301.60 203.75,300.85 199.00,298.60 196.15,294.85 195.20,289.60"/>
    </edge>
    <edge id=":intersection/0003_11" function="internal">
        <lane id=":intersection/0003_11_0" index="0" speed="9.26" length="19.35" shape="210.40,301.60 205.15,300.85 201.40,298.60 199.15,294.85 198.40,289.60"/>
    </edge>
    <edge id=":intersection/0003_12" function="internal">
        <lane id=":intersection/0003_12_0" index="0" speed="6.51" length="9.03" shape="204.80,289.60 205.15,292.05 206.20,293.80 207.95,294.85 210.40,295.20"/>
    </edge>
    <edge id=":intersection/0003_13" function="internal">
        <lane id=":intersection/0003_13_0" index="0" speed="7.33" length="11.73" shape="204.80,289.60 205.15,293.45 206.20,296.20 207.95,297.85 210.40,298.40"/>
    </edge>
    <edge id=":intersection/0003_14" function="internal">
        <lane id=":intersection/0003_14_0" index="0" speed="13.89" length="20.96" shape="204.80,289.60 204.80,310.40"/>
        <lane id=":intersection/0003_14_1" index="1" speed="13.89" length="20.96" shape="204.80,289.60 204.30,295.66 203.20,300.00 202.10,304.34 201.60,310.40"/>
    </edge>
    <edge id=":intersection/0003_16" function="internal">
        <lane id=":intersection/0003_16_0" index="0" speed="9.84" length="21.99" shape="201.60,289.60 200.85,296.25 198.60,301.00 194.85,303.85 189.60,304.80"/>
    </edge>
    <edge id=":intersection/0003_17" function="internal">
        <lane id=":intersection/0003_17_0" index="0" speed="9.26" length="19.35" shape="201.60,289.60 200.85,294.85 198.60,298.60 194.85,300.85 189.60,301.60"/>
    </edge>
    <edge id=":intersection/0003_18" function="internal">
        <lane id=":intersection/0003_18_0" index="0" speed="6.51" length="9.03" shape="189.60,295.20 192.05,294.85 193.80,293.80 194.85,292.05 195.20,289.60"/>
    </edge>
    <edge id=":intersection/0003_19" function="internal">
        <lane id=":intersection/0003_19_0" index="0" speed="7.33" length="11.73" shape="189.60,295.20 193.45,294.85 196.20,293.80 197.85,292.05 198.40,289.60"/>
    </edge>
    <edge id=":intersection/0003_20" function="internal">
        <lane id=":intersection/0003_20_0" index="0" speed="13.89" length="20.96" shape="189.60,295.20 210.40,295.20"/>
        <lane id=":intersection/0003_20_1" index="1" speed="13.89" length="20.96" shape="189.60,295.20 195.66,295.70 200.00,296.80 204.34,297.90 210.40,298.40"/>
    </edge>
    <edge id=":intersection/0003_22" function="internal">
        <lane id=":intersection/0003_22_0" index="0" speed="9.84" length="21.99" shape="189.60,298.40 196.25,299.15 201.00,301.40 203.85,305.15 204.80,310.40"/>
    </edge>
    <edge id=":intersection/0003_23" function="internal">
        <lane id=":intersection/0003_23_0" index="0" speed="9.26" length="19.35" shape="189.60,298.40 194.85,299.15 198.60,301.40 200.85,305.15 201.60,310.40"/>
    </edge>
    <edge id=":intersection/0004_0" function="internal">
        <lane id=":intersection/0004_0_0" index="0" speed="6.51" length="9.03" shape="295.20,310.40 294.85,307.95 293.80,306.20 292.05,305.15 289.60,304.80"/>
    </edge>
    <edge id=":intersection/0004_1" function="internal">
        <lane id=":intersection/0004_1_0" index="0" speed="7.33" length="11.73" shape="295.20,310.40 294.85,306.55 293.80,303.80 292.05,302.15 289.60,301.60"/>
    </edge>
    <edge id=":intersection/0004_2" function="internal">
        <lane id=":intersection/0004_2_0" index="0" speed="13.89" length="20.96" shape="295.20,310.40 295.20,289.60"/>
        <lane id=":intersection/0004_2_1" index="1" speed="13.89" length="20.96" shape="295.20,310.40 295.70,304.34 296.80,300.00 297.90,295.66 298.40,289.60"/>
    </edge>
    <edge id=":intersection/0004_4" function="internal">
        <lane id=":intersection/0004_4_0" index="0" speed="9.84" length="21.99" shape="298.40,310.40 299.15,303.75 301.40,299.00 305.15,296.15 310.40,295.20"/>
    </edge>
    <edge id=":intersection/0004_5" function="internal">
        <lane id=":intersection/0004_5_0" index="0" speed="9.26" length="19.35" shape="298.40,310.40 299.15,305.15 301.40,301.40 305.15,299.15 310.40,298.40"/>
    </edge>
    <edge id=":intersection/0004_6" function="internal">
        <lane id=":intersection/0004_6_0" index="0" speed="6.51" length="9.03" shape="310.40,304.80 307.95,305.15 306.20,306.20 305.15,307.95 304.80,310.40"/>
    </edge>
    <edge id=":intersection/0004_7" function="internal">
        <lane id=":intersection/0004_7_0" index="0" speed="7.33" length="11.73" shape="310.40,304.80 306.55,305.15 303.80,306.20 302.15,307.95 301.60,310.40"/>
    </edge>
    <edge id=":intersection/0004_8" function="internal">
        <lane id=":intersection/0004_8_0" index="0" speed="13.89" length="20.96" shape="310.40,304.80 289.60,304.80"/>
        <lane id=":intersection/0004_8_1" index="1" speed="13.89" length="20.96" shape="310.40,304.80 304.34,304.30 300.00,303.20 295.66,302.10 289.60,301.60"/>
    </edge>
    <edge id=":intersection/0004_10" function="internal">
        <lane id=":intersection/0004_10_0" index="0" speed="9.84" length="21.99" shape="310.40,301.60 303.75,300.85 299.00,298.60 296.15,294.85 295.20,289.60"/>
    </edge>
    <edge id=":intersection/0004_11" function="internal">
        <lane id=":intersection/0004_11_0" index="0" speed="9.26" length="19.35" shape="310.40,301.60 305.15,300.85 301.40,298.60 299.15,294.85 298.40,289.60"/>
    </edge>
    <edge id=":intersection/0004_12" function="internal">
        <lane id=":intersection/0004_12_0" index="0" speed="6.51" length="9.03" shape="304.80,289.60 305.15,292.05 306.20,293.80 307.95,294.85 310.40,295.20"/>
    </edge>
    <edge id=":intersection/0004_13" function="internal">
        <lane id=":intersection/0004_13_0" index="0" speed="7.33" length="11.73" shape="304.80,289.60 305.15,293.45 306.20,296.20 307.95,297.85 310.40,298.40"/>
    </edge>
    <edge id=":intersection/0004_14" function="internal">
        <lane id=":intersection/0004_14_0" index="0" speed="13.89" length="20.96" shape="304.80,289.60 304.80,310.40"/>
        <lane id=":intersection/0004_14_1" index="1" speed="13.89" length="20.96" shape="304.80,289.60 304.30,295.66 303.20,300.00 302.10,304.34 301.60,310.40"/>
    </edge>
    <edge id=":intersection/0004_16" function="internal">
        <lane id=":intersection/0004_16_0" index="0" speed="9.84" length="21.99" shape="301.60,289.60 300.85,296.25 298.60,301.00 294.85,303.85 289.60,304.80"/>
    </edge>
    <edge id=":intersection/0004_17" function="internal">
        <lane id=":intersection/0004_17_0" index="0" speed="9.26" length="19.35" shape="301.60,289.60 300.85,294.85 298.60,298.60 294.85,300.85 289.60,301.60"/>
    </edge>
    <edge id=":intersection/0004_18" function="internal">
        <lane id=":intersection/0004_18_0" index="0" speed="6.51" length="9.03" shape="289.60,295.20 292.05,294.85 293.80,293.80 294.85,292.05 295.20,289.60"/>
    </edge>
    <edge id=":intersection/0004_19" function="internal">
        <lane id=":intersection/0004_19_0" index="0" speed="7.33" length="11.73" shape="289.60,295.20 293.45,294.85 296.20,293.80 297.85,292.05 298.40,289.60"/>
    </edge>
    <edge id=":intersection/0004_20" function="internal">
        <lane id=":intersection/0004_20_0" index="0" speed="13.89" length="20.96" shape="289.60,295.20 310.40,295.20"/>
        <lane id=":intersection/0004_20_1" index="1" speed="13.89" length="20.96" shape="289.60,295.20 295.66,295.70 300.00,296.80 304.34,297.90 310.40,298.40"/>
    </edge>
    <edge id=":intersection/0004_22" function="internal">
        <lane id=":intersection/0004_22_0" index="0" speed="9.84" length="21.99" shape="289.60,298.40 296.25,299.15 301.00,301.40 303.85,305.15 304.80,310.40"/>
    </edge>
    <edge id=":intersection/0004_23" function="internal">
        <lane id=":intersection/0004_23_0" index="0" speed="9.26" length="19.35" shape="289.60,298.40 294.85,299.15 298.60,301.40 300.85,305.15 301.60,310.40"/>
    </edge>
    <edge id=":intersection/0005_0" function="internal">
        <lane id=":intersection/0005_0_0" index="0" speed="6.51" length="9.03" shape="95.20,210.40 94.85,207.95 93.80,206.20 92.05,205.15 89.60,204.80"/>
    </edge>
    <edge id=":intersection/0005_1" function="internal">
        <lane id=":intersection/0005_1_0" index="0" speed="7.33" length="11.73" shape="95.20,210.40 94.85,206.55 93.80,203.80 92.05,202.15 89.60,201.60"/>
    </edge>
    <edge id=":intersection/0005_2" function="internal">
        <lane id=":intersection/0005_2_0" index="0" speed="13.89" length="20.96" shape="95.20,210.40 95.20,189.60"/>
        <lane id=":intersection/0005_2_1" index="1" speed="13.89" length="20.96" shape="95.20,210.40 95.70,204.34 96.80,200.00 97.90,195.66 98.40,189.60"/>
    </edge>
    <edge id=":intersection/0005_4" function="internal">
        <lane id=":intersection/0005_4_0" index="0" speed="9.84" length="21.99" shape="98.40,210.40 99.15,203.75 101.40,199.00 105.15,196.15 110.40,195.20"/>
    </edge>
    <edge id=":intersection/0005_5" function="internal">
        <lane id=":intersection/0005_5_0" index="0" speed="9.26" length="19.35" shape="98.40,210.40 99.15,205.15 101.40,201.40 105.15,199.15 110.40,198.40"/>
    </edge>
    <edge id=":intersection/0005_6" function="internal">
        <lane id=":intersection/0005_6_0" index="0" speed="6.51" length="9.03" shape="110.40,204.80 107.95,205.15 106.20,206.20 105.15,207.95 104.80,210.40"/>
    </edge>
    <edge id=":intersection/0005_7" function="internal">
        <lane id=":intersection/0005_7_0" index="0" speed="7.33" length="11.73" shape="110.40,204.80 106.55,205.15 103.80,206.20 102.15,207.95 101.60,210.40"/>
    </edge>
    <edge id=":intersection/0005_8" function="internal">
        <lane id=":intersection/0005_8_0" index="0" speed="13.89" length="20.96" shape="110.40,204.80 89.60,204.80"/>
        <lane id=":intersection/0005_8_1" index="1" speed="13.89" length="20.96" shape="110.40,204.80 104.34,204.30 100.00,203.20 95.66,202.10 89.60,201.60"/>
    </edge>
    <edge id=":intersection/0005_10" function="internal">
        <lane id=":intersection/0005_10_0" index="0" speed="9.84" length="21.99" shape="110.40,201.60 103.75,200.85 99.00,198.60 96.15,194.85 95.20,189.60"/>
    </edge>
    <edge id=":intersection/0005_11" function="internal">
        <lane id=":intersection/0005_11_0" index="0" speed="9.26" length="19.35" shape="110.40,201.60 105.15,200.85 101.40,198.60 99.15,194.85 98.40,189.60"/>
    </edge>
    <edge id=":intersection/0005_12" function="internal">
        <lane id=":intersection/0005_12_0" index="0" speed="6.51" length="9.03" shape="104.80,189.60 105.15,192.05 106.20,193.80 107.95,194.85 110.40,195.20"/>
    </edge>
    <edge id=":intersection/0005_13" function="internal">
        <lane id=":intersection/0005_13_0" index="0" speed="7.33" length="11.73" shape="104.80,189.60 105.15,193.45 106.20,196.20 107.95,197.85 110.40,198.40"/>
    </edge>
    <edge id=":intersection/0005_14" function="internal">
        <lane id=":intersection/0005_14_0" index="0" speed="13.89" length="20.96" shape="104.80,189.60 104.80,210.40"/>
        <lane id=":intersection/0005_14_1" index="1" speed="13.89" length="20.96" shape="104.80,189.60 104.30,195.66 103.20,200.00 102.10,204.34 101.60,210.40"/>
    </edge>
    <edge id=":intersection/0005_16" function="internal">
        <lane id=":intersection/0005_16_0" index="0" speed="9.84" length="21.99" shape="101.60,189.60 100.85,196.25 98.60,201.00 94.85,203.85 89.60,204.80"/>
    </edge>
    <edge id=":intersection/0005_17" function="internal">
        <lane id=":intersection/0005_17_0" index="0" speed="9.26" length="19.35" shape="101.60,189.60 100.85,194.85 98.60,198.60 94.85,200.85 89.60,201.60"/>
    </edge>
    <edge id=":intersection/0005_18" function="internal">
        <lane id=":intersection/0005_18_0" index="0" speed="6.51" length="9.03" shape="89.60,195.20 92.05,194.85 93.80,193.80 94.85,192.05 95.20,189.60"/>
    </edge>
    <edge id=":intersection/0005_19" function="internal">
        <lane id=":intersection/0005_19_0" index="0" speed="7.33" length="11.73" shape="89.60,195.20 93.45,194.85 96.20,193.80 97.85,192.05 98.40,189.60"/>
    </edge>
    <edge id=":intersection/0005_20" function="internal">
        <lane id=":intersection/0005_20_0" index="0" speed="13.89" length="20.96" shape="89.60,195.20 110.40,195.20"/>
        <lane id=":intersection/0005_20_1" index="1" speed="13.89" length="20.96" shape="89.60,195.20 95.66,195.70 100.00,196.80 104.34,197.90 110.40,198.40"/>
    </edge>
    <edge id=":intersection/0005_22" function="internal">
        <lane id=":intersection/0005_22_0" index="0" speed="9.84" length="21.99" shape="89.60,198.40 96.25,199.15 101.00,201.40 103.85,205.15 104.80,210.40"/>
    </edge>
    <edge id=":intersection/0005_23" function="internal">
        <lane id=":intersection/0005_23_0" index="0" speed="9.26" length="19.35" shape="89.60,198.40 94.85,199.15 98.60,201.40 100.85,205.15 101.60,210.40"/>
    </edge>
    <edge id=":intersection/0006_0" function="internal">
        <lane id=":intersection/0006_0_0" index="0" speed="6.51" length="9.03" shape="195.20,210.40 194.85,207.95 193.80,206.20 192.05,205.15 189.60,204.80"/>
    </edge>
    <edge id=":intersection/0006_1" function="internal">
        <lane id=":intersection/0006_1_0" index="0" speed="7.33" length="11.73" shape="195.20,210.40 194.85,206.55 193.80,203.80 192.05,202.15 189.60,201.60"/>
    </edge>
    <edge id=":intersection/0006_2" function="internal">
        <lane id=":intersection/0006_2_0" index="0" speed="13.89" length="20.96" shape="195.20,210.40 195.20,189.60"/>
        <lane id=":intersection/0006_2_1" index="1" speed="13.89" length="20.96" shape="195.20,210.40 195.70,204.34 196.80,200.00 197.90,195.66 198.40,189.60"/>
    </edge>
    <edge id=":intersection/0006_4" function="internal">
        <lane id=":intersection/0006_4_0" index="0" speed="9.84" length="21.99" shape="198.40,210.40 199.15,203.75 201.40,199.00 205.15,196.15 210.40,195.20"/>
    </edge>
    <edge id=":intersection/0006_5" function="internal">
        <lane id=":intersection/0006_5_0" index="0" speed="9.26" length="19.35" shape="198.40,210.40 199.15,205.15 201.40,201.40 205.15,199.15 210.40,198.40"/>
    </edge>
    <edge id=":intersection/0006_6" function="internal">
        <lane id=":intersection/0006_6_0" index="0" speed="6.51" length="9.03" shape="210.40,204.80 207.95,205.15 206.20,206.20 205.15,207.95 204.80,210.40"/>
    </edge>
    <edge id=":intersection/0006_7" function="internal">
        <lane id=":intersection/0006_7_0" index="0" speed="7.33" length="11.73" shape="210.40,204.80 206.55,205.15 203.80,206.20 202.15,207.95 201.60,210.40"/>
    </edge>
    <edge id=":intersection/0006_8" function="internal">
        <lane id=":intersection/0006_8_0" index="0" speed="13.89" length="20.96" shape="210.40,204.80 189.60,204.80"/>
        <lane id=":intersection/0006_8_1" index="1" speed="13.89" length="20.96" shape="210.40,204.80 204.34,204.30 200.00,203.20 195.66,202.10 189.60,201.60"/>
    </edge>
    <edge id=":intersection/0006_10" function="internal">
        <lane id=":intersection/0006_10_0" index="0" speed="9.84" length="21.99" shape="210.40,201.60 203.75,200.85 199.00,198.60 196.15,194.85 195.20,189.60"/>
    </edge>
    <edge id=":intersection/0006_11" function="internal">
        <lane id=":intersection/0006_11_0" index="0" speed="9.26" length="19.35" shape="210.40,201.60 205.15,200.85 201.40,198.60 199.15,194.85 198.40,189.60"/>
    </edge>
    <edge id=":intersection/0006_12" function="internal">
        <lane id=":intersection/0006_12_0" index="0" speed="6.51" length="9.03" shape="204.80,189.60 205.15,192.05 206.20,193.80 207.95,194.85 210.40,195.20"/>
    </edge>
    <edge id=":intersection/0006_13" function="internal">
        <lane id=":intersection/0006_13_0" index="0" speed="7.33" length="11.73" shape="204.80,189.60 205.15,193.45 206.20,196.20 207.95,197.85 210.40,198.40"/>
    </edge>
    <edge id=":intersection/0006_14" function="internal">
        <lane id=":intersection/0006_14_0" index="0" speed="13.89" length="20.96" shape="204.80,189.60 204.80,210.40"/>
        <lane id=":intersection/0006_14_1" index="1" speed="13.89" length="20.96" shape="204.80,189.60 204.30,195.66 203.20,200.00 202.10,204.34 201.60,210.40"/>
    </edge>
    <edge id=":intersection/0006_16" function="internal">
        <lane id=":intersection/0006_16_0" index="0" speed="9.84" length="21.99" shape="201.60,189.60 200.85,196.25 198.60,201.00 194.85,203.85 189.60,204.80"/>
    </edge>
    <edge id=":intersection/0006_17" function="internal">
        <lane id=":intersection/0006_17_0" index="0" speed="9.26" length="19.35" shape="201.60,189.60 200.85,194.85 198.60,198.60 194.85,200.85 189.60,201.60"/>
    </edge>
    <edge id=":intersection/0006_18" function="internal">
        <lane id=":intersection/0006_18_0" index="0" speed="6.51" length="9.03" shape="189.60,195.20 192.05,194.85 193.80,193.80 194.85,192.05 195.20,189.60"/>
    </edge>
    <edge id=":intersection/0006_19" function="internal">
        <lane id=":intersection/0006_19_0" index="0" speed="7.33" length="11.73" shape="189.60,195.20 193.45,194.85 196.20,193.80 197.85,192.05 198.40,189.60"/>
    </edge>
    <edge id=":intersection/0006_20" function="internal">
        <lane id=":intersection/0006_20_0" index="0" speed="13.89" length="20.96" shape="189.60,195.20 210.40,195.20"/>
        <lane id=":intersection/0006_20_1" index="1" speed="13.89" length="20.96" shape="189.60,195.20 195.66,195.70 200.00,196.80 204.34,197.90 210.40,198.40"/>
    </edge>
    <edge id=":intersection/0006_22" function="internal">
        <lane id=":intersection/0006_22_0" index="0" speed="9.84" length="21.99" shape="189.60,198.40 196.25,199.15 201.00,201.40 203.85,205.15 204.80,210.40"/>
    </edge>
    <edge id=":intersection/0006_23" function="internal">
        <lane id=":intersection/0006_23_0" index="0" speed="9.26" length="19.35" shape="189.60,198.40 194.85,199.15 198.60,201.40 200.85,205.15 201.60,210.40"/>
    </edge>
    <edge id=":intersection/0007_0" function="internal">
        <lane id=":intersection/0007_0_0" index="0" speed="6.51" length="9.03" shape="295.20,210.40 294.85,207.95 293.80,206.20 292.05,205.15 289.60,204.80"/>
    </edge>
    <edge id=":intersection/0007_1" function="internal">
        <lane id=":intersection/0007_1_0" index="0" speed="7.33" length="11.73" shape="295.20,210.40 294.85,206.55 293.80,203.80 292.05,202.15 289.60,201.60"/>
    </edge>
    <edge id=":intersection/0007_2" function="internal">
        <lane id=":intersection/0007_2_0" index="0" speed="13.89" length="20.96" shape="295.20,210.40 295.20,189.60"/>
        <lane id=":intersection/0007_2_1" index="1" speed="13.89" length="20.96" shape="295.20,210.40 295.70,204.34 296.80,200.00 297.90,195.66 298.40,189.60"/>
    </edge>
    <edge id=":intersection/0007_4" function="internal">
        <lane id=":intersection/0007_4_0" index="0" speed="9.84" length="21.99" shape="298.40,210.40 299.15,203.75 301.40,199.00 305.15,196.15 310.40,195.20"/>
    </edge>
    <edge id=":intersection/0007_5" function="internal">
        <lane id=":intersection/0007_5_0" index="0" speed="9.26" length="19.35" shape="298.40,210.40 299.15,205.15 301.40,201.40 305.15,199.15 310.40,198.40"/>
    </edge>
    <edge id=":intersection/0007_6" function="internal">
        <lane id=":intersection/0007_6_0" index="0" speed="6.51" length="9.03" shape="310.40,204.80 307.95,205.15 306.20,206.20 305.15,207.95 304.80,210.40"/>
    </edge>
    <edge id=":intersection/0007_7" function="internal">
        <lane id=":intersection/0007_7_0" index="0" speed="7.33" length="11.73" shape="310.40,204.80 306.55,205.15 303.80,206.20 302.15,207.95 301.60,210.40"/>
    </edge>
    <edge id=":intersection/0007_8" function="internal">
        <lane id=":intersection/0007_8_0" index="0" speed="13.89" length="20.96" shape="310.40,204.80 289.60,204.80"/>
        <lane id=":intersection/0007_8_1" index="1" speed="13.89" length="20.96" shape="310.40,204.80 304.34,204.30 300.00,203.20 295.66,202.10 289.60,201.60"/>
    </edge>
    <edge id=":intersection/0007_10" function="internal">
        <lane id=":intersection/0007_10_0" index="0" speed="9.84" length="21.99" shape="310.40,201.60 303.75,200.85 299.00,198.60 296.15,194.85 295.20,189.60"/>
    </edge>
    <edge id=":intersection/0007_11" function="internal">
        <lane id=":intersection/0007_11_0" index="0" speed="9.26" length="19.35" shape="310.40,201.60 305.15,200.85 301.40,198.60 299.15,194.85 298.40,189.60"/>
    </edge>
    <edge id=":intersection/0007_12" function="internal">
        <lane id=":intersection/0007_12_0" index="0" speed="6.51" length="9.03" shape="304.80,189.60 305.15,192.05 306.20,193.80 307.95,194.85 310.40,195.20"/>
    </edge>
    <edge id=":intersection/0007_13" function="internal">
        <lane id=":intersection/0007_13_0" index="0" speed="7.33" length="11.73" shape="304.80,189.60 305.15,193.45 306.20,196.20 307.95,197.85 310.40,198.40"/>
    </edge>
    <edge id=":intersection/0007_14" function="internal">
        <lane id=":intersection/0007_14_0" index="0" speed="13.89" length="20.96" shape="304.80,189.60 304.80,210.40"/>
        <lane id=":intersection/0007_14_1" index="1" speed="13.89" length="20.96" shape="304.80,189.60 304.30,195.66 303.20,200.00 302.10,204.34 301.60,210.40"/>
    </edge>
    <edge id=":intersection/0007_16" function="internal">