<?xml version="1.0" encoding="UTF-8"?>

<!-- generated on 2023-05-16 15:02:11 by Eclipse SUMO duarouter Version 1.12.0
<configuration xmlns:xsi="http://www.w3.org/2001/XMLSchema-instance" xsi:noNamespaceSchemaLocation="http://sumo.dlr.de/xsd/duarouterConfiguration.xsd">

    <input>
        <net-file value="src/data/sumo_optimal/optimal.net.xml"/>
        <route-files value="src/data/sumo_optimal/optimal.passenger_55.trips.xml"/>
    </input>

    <output>
        <output-file value="src/data/sumo_optimal/optimal.passenger_55.trips.xml.tmp"/>
        <write-trips value="true"/>
    </output>

    <processing>
        <remove-loops value="true"/>
    </processing>

    <time>
        <begin value="0"/>
        <end value="3600"/>
    </time>

    <report>
        <no-warnings value="true"/>
        <ignore-errors value="true"/>
        <no-step-log value="true"/>
    </report>

</configuration>
-->

<routes xmlns:xsi="http://www.w3.org/2001/XMLSchema-instance" xsi:noNamespaceSchemaLocation="http://sumo.dlr.de/xsd/routes_file.xsd">
    <vType id="veh_passenger" vClass="passenger"/>
    <trip id="veh0" type="veh_passenger" depart="0.00" departLane="best" departSpeed="max" from="D0D1" to="D1E1"/>
    <trip id="veh1" type="veh_passenger" depart="5.14" departLane="best" departSpeed="max" from="D4D3" to="D3E3"/>
    <trip id="veh2" type="veh_passenger" depart="10.29" departLane="best" from="D2D3" to="D3D4"/>
    <trip id="veh3" type="veh_passenger" depart="15.43" departLane="best" departSpeed="max" from="A1B1" to="C1D1"/>
    <trip id="veh4" type="veh_passenger" depart="20.57" departLane="best" departSpeed="max" from="E3D3" to="D1D0"/>
    <trip id="veh5" type="veh_passenger" depart="25.71" departLane="best" departSpeed="max" from="E2D2" to="B1B0"/>
    <trip id="veh6" type="veh_passenger" depart="30.86" departLane="best" from="C1D1" to="B3A3"/>
    <trip id="veh7" type="veh_passenger" depart="36.00" departLane="best" from="B3C3" to="C3C4"/>
    <trip id="veh8" type="veh_passenger" depart="41.14" departLane="best" departSpeed="max" from="A1B1" to="B2B3"/>
    <trip id="veh9" type="veh_passenger" depart="46.29" departLane="best" from="B2B3" to="D3D4"/>
    <trip id="veh10" type="veh_passenger" depart="51.43" departLane="best" departSpeed="max" from="D4D3" to="B2A2"/>
    <trip id="veh11" type="veh_passenger" depart="56.57" departLane="best" departSpeed="max" from="D4D3" to="B1C1"/>
    <trip id="veh12" type="veh_passenger" depart="61.71" departLane="best" departSpeed="max" from="C4C3" to="B1B2"/>
    <trip id="veh13" type="veh_passenger" depart="66.86" departLane="best" departSpeed="max" from="A1B1" to="D3D2"/>
    <trip id="veh14" type="veh_passenger" depart="72.00" departLane="best" departSpeed="max" from="B0B1" to="B2B3"/>
    <trip id="veh15" type="veh_passenger" depart="77.14" departLane="best" departSpeed="max" from="E3D3" to="D3D2"/>
    <trip id="veh16" type="veh_passenger" depart="82.29" departLane="best" from="B2C2" to="D3E3"/>
    <trip id="veh17" type="veh_passenger" depart="87.43" departLane="best" from="C3C2" to="D1D0"/>
    <trip id="veh18" type="veh_passenger" depart="92.57" departLane="best" departSpeed="max" from="B0B1" to="D3E3"/>
    <trip id="veh19" type="veh_passenger" depart="97.71" departLane="best" from="D1D2" to="D3E3"/>
    <trip id="veh20" type="veh_passenger" depart="102.86" departLane="best" departSpeed="max" from="E2D2" to="B3B2"/>
    <trip id="veh21" type="veh_passenger" depart="108.00" departLane="best" departSpeed="max" from="B4B3" to="B2A2"/>
    <trip id="veh22" type="veh_passenger" depart="113.14" departLane="best" departSpeed="max" from="A3B3" to="B1B0"/>
    <trip id="veh23" type="veh_passenger" depart="118.29" departLane="best" from="B3B2" to="C3C4"/>
    <trip id="veh24" type="veh_passenger" depart="123.43" departLane="best" departSpeed="max" from="A1B1" to="D1D0"/>
    <trip id="veh25" type="veh_passenger" depart="128.57" departLane="best" departSpeed="max" from="B4B3" to="B3B4"/>
    <trip id="veh26" type="veh_passenger" depart="133.71" departLane="best" departSpeed="max" from="D4D3" to="C2B2"/>
    <trip id="veh27" type="veh_passenger" depart="138.86" departLane="best" from="B3C3" to="C2B2"/>
    <trip id="veh28" type="veh_passenger" depart="144.00" departLane="best" from="D2C2" to="B1A1"/>
    <trip id="veh29" type="veh_passenger" depart="149.14" departLane="best" departSpeed="max" from="E3D3" to="B1A1"/>
    <trip id="veh30" type="veh_passenger" depart="154.29" departLane="best" from="D3C3" to="D2E2"/>
    <trip id="veh31" type="veh_passenger" depart="159.43" departLane="best" departSpeed="max" from="A1B1" to="D2D3"/>
    <trip id="veh32" type="veh_passenger" depart="164.57" departLane="best" departSpeed="max" from="B4B3" to="C3C4"/>
    <trip id="veh33" type="veh_passenger" depart="169.71" departLane="best" departSpeed="max" from="A1B1" to="B1A1"/>
    <trip id="veh34" type="veh_passenger" depart="174.86" departLane="best" departSpeed="max" from="B0B1" to="D3E3"/>
    <trip id="veh35" type="veh_passenger" depart="180.00" departLane="best" departSpeed="max" from="B0B1" to="D1E1"/>
    <trip id="veh36" type="veh_passenger" depart="185.14" departLane="best" departSpeed="max" from="E2D2" to="D3E3"/>
    <trip id="veh37" type="veh_passenger" depart="190.29" departLane="best" departSpeed="max" from="B4B3" to="B3B4"/>
    <trip id="veh38" type="veh_passenger" depart="195.43" departLane="best" from="C3B3" to="D2D1"/>
    <trip id="veh39" type="veh_passenger" depart="200.57" departLane="best" departSpeed="max" from="A2B2" to="D1E1"/>
    <trip id="veh40" type="veh_passenger" depart="205.71" departLane="best" departSpeed="max" from="D4D3" to="D3C3"/>
    <trip id="veh41" type="veh_passenger" depart="210.86" departLane="best" departSpeed="max" from="A1B1" to="D3E3"/>
    <trip id="veh42" type="veh_passenger" depart="216.00" departLane="best" departSpeed="max" from="A2B2" to="B3B4"/>
    <trip id="veh43" type="veh_passenger" depart="221.14" departLane="best" departSpeed="max" from="C4C3" to="D3D4"/>
    <trip id="veh44" type="veh_passenger" depart="226.29" departLane="best" departSpeed="max" from="B4B3" to="D3D4"/>
    <trip id="veh45" type="veh_passenger" depart="231.43" departLane="best" from="C3C2" to="B3B4"/>
    <trip id="veh46" type="veh_passenger" depart="236.57" departLane="best" from="B3C3" to="B2A2"/>
    <trip id="veh47" type="veh_passenger" depart="241.71" departLane="best" departSpeed="max" from="A2B2" to="B2A2"/>
    <trip id="veh48" type="veh_passenger" depart="246.86" departLane="best" from="D1C1" to="D3E3"/>
    <trip id="veh49" type="veh_passenger" depart="252.00" departLane="best" departSpeed="max" from="A3B3" to="B1A1"/>
    <trip id="veh50" type="veh_passenger" depart="257.14" departLane="best" departSpeed="max" from="E3D3" to="C3B3"/>
    <trip id="veh51" type="veh_passenger" depart="262.29" departLane="best" departSpeed="max" from="C0C1" to="B2C2"/>
    <trip id="veh52" type="veh_passenger" depart="267.43" departLane="best" departSpeed="max" from="C4C3" to="D2E2"/>
    <trip id="veh53" type="veh_passenger" depart="272.57" departLane="best" from="D1C1" to="C1C0"/>
    <trip id="veh54" type="veh_passenger" depart="277.71" departLane="best" departSpeed="max" from="A1B1" to="D3D4"/>
    <trip id="veh55" type="veh_passenger" depart="282.86" departLane="best" departSpeed="max" from="A1B1" to="C2C1"/>
    <trip id="veh56" type="veh_passenger" depart="288.00" departLane="best" departSpeed="max" from="E1D1" to="B1B2"/>
    <trip id="veh57" type="veh_passenger" depart="293.14" departLane="best" from="D2D3" to="D3E3"/>
    <trip id="veh58" type="veh_passenger" depart="298.29" departLane="best" departSpeed="max" from="D0D1" to="D2D3"/>
    <trip id="veh59" type="veh_passenger" depart="303.43" departLane="best" departSpeed="max" from="A2B2" to="C1C0"/>
    <trip id="veh60" type="veh_passenger" depart="308.57" departLane="best" departSpeed="max" from="A3B3" to="D2E2"/>
    <trip id="veh61" type="veh_passenger" depart="313.71" departLane="best" from="B2C2" to="C2D2"/>
    <trip id="veh62" type="veh_passenger" depart="318.86" departLane="best" departSpeed="max" from="E3D3" to="D2E2"/>
    <trip id="veh63" type="veh_passenger" depart="324.00" departLane="best" departSpeed="max" from="E3D3" to="C1C2"/>
    <trip id="veh64" type="veh_passenger" depart="329.14" departLane="best" from="C2C1" to="D1E1"/>
    <trip id="veh65" type="veh_passenger" depart="334.29" departLane="best" from="C2B2" to="B3A3"/>
    <trip id="veh66" type="veh_passenger" depart="339.43" departLane="best" departSpeed="max" from="C0C1" to="B2A2"/>
    <trip id="veh67" type="veh_passenger" depart="344.57" departLane="best" departSpeed="max" from="B4B3" to="D3E3"/>
    <trip id="veh68" type="veh_passenger" depart="349.71" departLane="best" departSpeed="max" from="E3D3" to="D1C1"/>
    <trip id="veh69" type="veh_passenger" depart="354.86" departLane="best" from="C2C1" to="B3B4"/>
    <trip id="veh70" type="veh_passenger" depart="360.00" departLane="best" departSpeed="max" from="A2B2" to="B3A3"/>
    <trip id="veh71" type="veh_passenger" depart="365.14" departLane="best" departSpeed="max" from="D4D3" to="D3C3"/>
    <trip id="veh72" type="veh_passenger" depart="370.29" departLane="best" departSpeed="max" from="B4B3" to="D2D3"/>
    <trip id="veh73" type="veh_passenger" depart="375.43" departLane="best" departSpeed="max" from="D4D3" to="D2C2"/>
    <trip id="veh74" type="veh_passenger" depart="380.57" departLane="best" departSpeed="max" from="D0D1" to="D1E1"/>
    <trip id="veh75" type="veh_passenger" depart="385.71" departLane="best" departSpeed="max" from="B4B3" to="D1E1"/>
    <trip id="veh76" type="veh_passenger" depart="390.86" departLane="best" from="B2B3" to="C2B2"/>
    <trip id="veh77" type="veh_passenger" depart="396.00" departLane="best" departSpeed="max" from="D4D3" to="D2C2"/>
    <trip id="veh78" type="veh_passenger" depart="401.14" departLane="best" from="B2C2" to="D3E3"/>
    <trip id="veh79" type="veh_passenger" depart="406.29" departLane="best" departSpeed="max" from="D0D1" to="C3C4"/>
    <trip id="veh80" type="veh_passenger" depart="411.43" departLane="best" departSpeed="max" from="A1B1" to="C3C2"/>
    <trip id="veh81" type="veh_passenger" depart="416.57" departLane="best" from="B1C1" to="D1D0"/>
    <trip id="veh82" type="veh_passenger" depart="421.71" departLane="best" from="C1C2" to="D2E2"/>
    <trip id="veh83" type="veh_passenger" depart="426.86" departLane="best" departSpeed="max" from="D0D1" to="D2E2"/>
    <trip id="veh84" type="veh_passenger" depart="432.00" departLane="best" departSpeed="max" from="B4B3" to="D1D0"/>
    <trip id="veh85" type="veh_passenger" depart="437.14" departLane="best" from="C2D2" to="D2E2"/>
    <trip id="veh86" type="veh_passenger" depart="442.29" departLane="best" departSpeed="max" from="B4B3" to="D2E2"/>
    <trip id="veh87" type="veh_passenger" depart="447.43" departLane="best" departSpeed="max" from="E1D1" to="D1D0"/>
    <trip id="veh88" type="veh_passenger" depart="452.57" departLane="best" departSpeed="max" from="E3D3" to="D3E3"/>
    <trip id="veh89" type="veh_passenger" depart="457.71" departLane="best" from="C2D2" to="C3B3"/>
    <trip id="veh90" type="veh_passenger" depart="462.86" departLane="best" departSpeed="max" from="A3B3" to="D2E2"/>
    <trip id="veh91" type="veh_passenger" depart="468.00" departLane="best" departSpeed="max" from="E2D2" to="C2B2"/>
    <trip id="veh92" type="veh_passenger" depart="473.14" departLane="best" from="C1D1" to="D1E1"/>
    <trip id="veh93" type="veh_passenger" depart="478.29" departLane="best" from="D2D3" to="B2A2"/>
    <trip id="veh94" type="veh_passenger" depart="483.43" departLane="best" departSpeed="max" from="D4D3" to="C3C4"/>
    <trip id="veh95" type="veh_passenger" depart="488.57" departLane="best" departSpeed="max" from="D0D1" to="C1C0"/>
    <trip id="veh96" type="veh_passenger" depart="493.71" departLane="best" departSpeed="max" from="D0D1" to="D1C1"/>
    <trip id="veh97" type="veh_passenger" depart="498.86" departLane="best" departSpeed="max" from="D0D1" to="D1E1"/>
    <trip id="veh98" type="veh_passenger" depart="504.00" departLane="best" departSpeed="max" from="A1B1" to="B2A2"/>
    <trip id="veh99" type="veh_passenger" depart="509.14" departLane="best" from="C1B1" to="D1D0"/>
    <trip id="veh100" type="veh_passenger" depart="514.29" departLane="best" departSpeed="max" from="B0B1" to="D1D0"/>
    <trip id="veh101" type="veh_passenger" depart="519.43" departLane="best" departSpeed="max" from="D0D1" to="B1A1"/>
    <trip id="veh102" type="veh_passenger" depart="524.57" departLane="best" from="C2C1" to="B2C2"/>
    <trip id="veh103" type="veh_passenger" depart="529.71" departLane="best" departSpeed="max" from="A1B1" to="B1C1"/>
    <trip id="veh104" type="veh_passenger" depart="534.86" departLane="best" from="B3C3" to="B2A2"/>
    <trip id="veh105" type="veh_passenger" depart="540.00" departLane="best" departSpeed="max" from="B0B1" to="B1A1"/>
    <trip id="veh106" type="veh_passenger" depart="545.14" departLane="best" from="C1D1" to="B3C3"/>
    <trip id="veh107" type="veh_passenger" depart="550.29" departLane="best" departSpeed="max" from="C4C3" to="C3C4"/>
    <trip id="veh108" type="veh_passenger" depart="555.43" departLane="best" departSpeed="max" from="B0B1" to="D3D4"/>
    <trip id="veh109" type="veh_passenger" depart="560.57" departLane="best" departSpeed="max" from="A1B1" to="C1C0"/>
    <trip id="veh110" type="veh_passenger" depart="565.71" departLane="best" from="B2B3" to="C1C0"/>
    <trip id="veh111" type="veh_passenger" depart="570.86" departLane="best" departSpeed="max" from="A2B2" to="D2E2"/>
    <trip id="veh112" type="veh_passenger" depart="576.00" departLane="best" departSpeed="max" from="B4B3" to="B1A1"/>
    <trip id="veh113" type="veh_passenger" depart="581.14" departLane="best" departSpeed="max" from="C4C3" to="B1B0"/>
    <trip id="veh114" type="veh_passenger" depart="586.29" departLane="best" from="C3C2" to="B3B4"/>
    <trip id="veh115" type="veh_passenger" depart="591.43" departLane="best" departSpeed="max" from="C4C3" to="D3E3"/>
    <trip id="veh116" type="veh_passenger" depart="596.57" departLane="best" departSpeed="max" from="D4D3" to="C1C0"/>
    <trip id="veh117" type="veh_passenger" depart="601.71" departLane="best" departSpeed="max" from="D4D3" to="D1D0"/>
    <trip id="veh118" type="veh_passenger" depart="606.86" departLane="best" departSpeed="max" from="B4B3" to="B1C1"/>
    <trip id="veh119" type="veh_passenger" depart="612.00" departLane="best" departSpeed="max" from="C4C3" to="C3C4"/>
    <trip id="veh120" type="veh_passenger" depart="617.14" departLane="best" departSpeed="max" from="E3D3" to="D3E3"/>
    <trip id="veh121" type="veh_passenger" depart="622.29" departLane="best" departSpeed="max" from="C4C3" to="B3B4"/>
    <trip id="veh122" type="veh_passenger" depart="627.43" departLane="best" departSpeed="max" from="E2D2" to="B1A1"/>
    <trip id="veh123" type="veh_passenger" depart="632.57" departLane="best" departSpeed="max" from="A2B2" to="C3C4"/>
    <trip id="veh124" type="veh_passenger" depart="637.71" departLane="best" departSpeed="max" from="C4C3" to="B1C1"/>
    <trip id="veh125" type="veh_passenger" depart="642.86" departLane="best" departSpeed="max" from="D0D1" to="D3D4"/>
    <trip id="veh126" type="veh_passenger" depart="648.00" departLane="best" departSpeed="max" from="B4B3" to="C1C0"/>
    <trip id="veh127" type="veh_passenger" depart="653.14" departLane="best" departSpeed="max" from="B0B1" to="B3A3"/>
    <trip id="veh128" type="veh_passenger" depart="658.29" departLane="best" departSpeed="max" from="E3D3" to="B3C3"/>
    <trip id="veh129" type="veh_passenger" depart="663.43" departLane="best" departSpeed="max" from="E3D3" to="D3D4"/>
    <trip id="veh130" type="veh_passenger" depart="668.57" departLane="best" departSpeed="max" from="C4C3" to="B3A3"/>
    <trip id="veh131" type="veh_passenger" depart="673.71" departLane="best" departSpeed="max" from="E3D3" to="C2C1"/>
    <trip id="veh132" type="veh_passenger" depart="678.86" departLane="best" departSpeed="max" from="C0C1" to="B3B4"/>
    <trip id="veh133" type="veh_passenger" depart="684.00" departLane="best" departSpeed="max" from="E3D3" to="C2C1"/>
    <trip id="veh134" type="veh_passenger" depart="689.14" departLane="best" from="B2C2" to="C2B2"/>
    <trip id="veh135" type="veh_passenger" depart="694.29" departLane="best" departSpeed="max" from="A3B3" to="D1C1"/>
    <trip id="veh136" type="veh_passenger" depart="699.43" departLane="best" from="C1B1" to="B3A3"/>
    <trip id="veh137" type="veh_passenger" depart="704.57" departLane="best" departSpeed="max" from="D4D3" to="D2E2"/>
    <trip id="veh138" type="veh_passenger" depart="709.71" departLane="best" departSpeed="max" from="A1B1" to="C3B3"/>
    <trip id="veh139" type="veh_passenger" depart="714.86" departLane="best" from="B2B1" to="D3D4"/>
    <trip id="veh140" type="veh_passenger" depart="720.00" departLane="best" departSpeed="max" from="D4D3" to="B3A3"/>
    <trip id="veh141" type="veh_passenger" depart="725.14" departLane="best" from="C2B2" to="B2A2"/>
    <trip id="veh142" type="veh_passenger" depart="730.29" departLane="best" departSpeed="max" from="E3D3" to="B3A3"/>
    <trip id="veh143" type="veh_passenger" depart="735.43" departLane="best" departSpeed="max" from="C4C3" to="C1D1"/>
    <trip id="veh144" type="veh_passenger" depart="740.57" departLane="best" departSpeed="max" from="D0D1" to="C3C4"/>
    <trip id="veh145" type="veh_passenger" depart="745.71" departLane="best" from="D3C3" to="B1B0"/>
    <trip id="veh146" type="veh_passenger" depart="750.86" departLane="best" from="D3D2" to="B3B2"/>
    <trip id="veh147" type="veh_passenger" depart="756.00" departLane="best" from="C3B3" to="B3B4"/>
    <trip id="veh148" type="veh_passenger" depart="761.14" departLane="best" from="B2C2" to="C3B3"/>
    <trip id="veh149" type="veh_passenger" depart="766.29" departLane="best" from="C1D1" to="B3B4"/>
    <trip id="veh150" type="veh_passenger" depart="771.43" departLane="best" from="D3C3" to="C3C4"/>
    <trip id="veh151" type="veh_passenger" depart="776.57" departLane="best" departSpeed="max" from="A1B1" to="B3A3"/>
    <trip id="veh152" type="veh_passenger" depart="781.71" departLane="best" from="C1C2" to="D3D4"/>
    <trip id="veh153" type="veh_passenger" depart="786.86" departLane="best" departSpeed="max" from="E2D2" to="C3C2"/>
    <trip id="veh154" type="veh_passenger" depart="792.00" departLane="best" departSpeed="max" from="A1B1" to="D2D1"/>
    <trip id="veh155" type="veh_passenger" depart="797.14" departLane="best" departSpeed="max" from="C0C1" to="C3C4"/>
    <trip id="veh156" type="veh_passenger" depart="802.29" departLane="best" from="D2C2" to="D1D0"/>
    <trip id="veh157" type="veh_passenger" depart="807.43" departLane="best" from="C2B2" to="D3D4"/>
    <trip id="veh158" type="veh_passenger" depart="812.57" departLane="best" departSpeed="max" from="C0C1" to="C1B1"/>
    <trip id="veh159" type="veh_passenger" depart="817.71" departLane="best" departSpeed="max" from="E1D1" to="B2A2"/>
    <trip id="veh160" type="veh_passenger" depart="822.86" departLane="best" from="B2C2" to="D2E2"/>
    <trip id="veh161" type="veh_passenger" depart="828.00" departLane="best" departSpeed="max" from="A2B2" to="D2E2"/>
    <trip id="veh162" type="veh_passenger" depart="833.14" departLane="best" from="D1D2" to="C1C0"/>
    <trip id="veh163" type="veh_passenger" depart="838.29" departLane="best" from="B2C2" to="D2D1"/>
    <trip id="veh164" type="veh_passenger" depart="843.43" departLane="best" departSpeed="max" from="E2D2" to="B1C1"/>
    <trip id="veh165" type="veh_passenger" depart="848.57" departLane="best" from="C2B2" to="C3C4"/>
    <trip id="veh166" type="veh_passenger" depart="853.71" departLane="best" from="C2C1" to="B3B4"/>
    <trip id="veh167" type="veh_passenger" depart="858.86" departLane="best" departSpeed="max" from="A3B3" to="C3C4"/>
    <trip id="veh168" type="veh_passenger" depart="864.00" departLane="best" departSpeed="max" from="D4D3" to="B1B0"/>
    <trip id="veh169" type="veh_passenger" depart="869.14" departLane="best" departSpeed="max" from="B0B1" to="D2E2"/>
    <trip id="veh170" type="veh_passenger" depart="874.29" departLane="best" departSpeed="max" from="D4D3" to="D1D0"/>
    <trip id="veh171" type="veh_passenger" depart="879.43" departLane="best" departSpeed="max" from="A1B1" to="D1E1"/>
    <trip id="veh172" type="veh_passenger" depart="884.57" departLane="best" departSpeed="max" from="E3D3" to="D3E3"/>
    <trip id="veh173" type="veh_passenger" depart="889.71" departLane="best" from="D1D2" to="B1A1"/>
    <trip id="veh174" type="veh_passenger" depart="894.86" departLane="best" departSpeed="max" from="E1D1" to="B2B3"/>
    <trip id="veh175" type="veh_passenger" depart="900.00" departLane="best" departSpeed="max" from="D0D1" to="D3E3"/>
    <trip id="veh176" type="veh_passenger" depart="905.14" departLane="best" from="D2C2" to="B1C1"/>
    <trip id="veh177" type="veh_passenger" depart="910.29" departLane="best" from="B2C2" to="D3D4"/>
    <trip id="veh178" type="veh_passenger" depart="915.43" departLane="best" departSpeed="max" from="A3B3" to="C3D3"/>
    <trip id="veh179" type="veh_passenger" depart="920.57" departLane="best" departSpeed="max" from="C0C1" to="B2A2"/>
    <trip id="veh180" type="veh_passenger" depart="925.71" departLane="best" departSpeed="max" from="D0D1" to="B1A1"/>
    <trip id="veh181" type="veh_passenger" depart="930.86" departLane="best" departSpeed="max" from="A2B2" to="B3C3"/>
    <trip id="veh182" type="veh_passenger" depart="936.00" departLane="best" departSpeed="max" from="A2B2" to="B1A1"/>
    <trip id="veh183" type="veh_passenger" depart="941.14" departLane="best" departSpeed="max" from="C4C3" to="D1E1"/>
    <trip id="veh184" type="veh_passenger" depart="946.29" departLane="best" departSpeed="max" from="E1D1" to="C1C2"/>
    <trip id="veh185" type="veh_passenger" depart="951.43" departLane="best" departSpeed="max" from="C0C1" to="B3B4"/>
    <trip id="veh186" type="veh_passenger" depart="956.57" departLane="best" departSpeed="max" from="C4C3" to="C2C1"/>
    <trip id="veh187" type="veh_passenger" depart="961.71" departLane="best" departSpeed="max" from="E2D2" to="B3C3"/>
    <trip id="veh188" type="veh_passenger" depart="966.86" departLane="best" departSpeed="max" from="A1B1" to="D1D2"/>
    <trip id="veh189" type="veh_passenger" depart="972.00" departLane="best" departSpeed="max" from="A3B3" to="D1D0"/>
    <trip id="veh190" type="veh_passenger" depart="977.14" departLane="best" from="C2C3" to="D3D4"/>
    <trip id="veh191" type="veh_passenger" depart="982.29" departLane="best" from="C3D3" to="D1C1"/>
    <trip id="veh192" type="veh_passenger" depart="987.43" departLane="best" from="B2B1" to="C3C4"/>
    <trip id="veh193" type="veh_passenger" depart="992.57" departLane="best" from="B1C1" to="D1E1"/>
    <trip id="veh194" type="veh_passenger" depart="997.71" departLane="best" from="C1C2" to="B1C1"/>
    <trip id="veh195" type="veh_passenger" depart="1002.86" departLane="best" departSpeed="max" from="B0B1" to="B3C3"/>
    <trip id="veh196" type="veh_passenger" depart="1008.00" departLane="best" from="D2D3" to="B2A2"/>
    <trip id="veh197" type="veh_passenger" depart="1013.14" departLane="best" from="D2C2" to="D1D0"/>
    <trip id="veh198" type="veh_passenger" depart="1018.29" departLane="best" departSpeed="max" from="A2B2" to="D1D0"/>
    <trip id="veh199" type="veh_passenger" depart="1023.43" departLane="best" departSpeed="max" from="A2B2" to="B2C2"/>
    <trip id="veh200" type="veh_passenger" depart="1028.57" departLane="best" departSpeed="max" from="C4C3" to="B3A3"/>
    <trip id="veh201" type="veh_passenger" depart="1033.71" departLane="best" departSpeed="max" from="E1D1" to="C2B2"/>
    <trip id="veh202" type="veh_passenger" depart="1038.86" departLane="best" departSpeed="max" from="B4B3" to="D2D3"/>
    <trip id="veh203" type="veh_passenger" depart="1044.00" departLane="best" departSpeed="max" from="A1B1" to="D1E1"/>
    <trip id="veh204" type="veh_passenger" depart="1049.14" departLane="best" departSpeed="max" from="A1B1" to="B2A2"/>
    <trip id="veh205" type="veh_passenger" depart="1054.29" departLane="best" departSpeed="max" from="E3D3" to="D1D0"/>
    <trip id="veh206" type="veh_passenger" depart="1059.43" departLane="best" departSpeed="max" from="B0B1" to="B1B0"/>
    <trip id="veh207" type="veh_passenger" depart="1064.57" departLane="best" departSpeed="max" from="E3D3" to="D1D0"/>
    <trip id="veh208" type="veh_passenger" depart="1069.71" departLane="best" departSpeed="max" from="D4D3" to="B1C1"/>
    <trip id="veh209" type="veh_passenger" depart="1074.86" departLane="best" departSpeed="max" from="D0D1" to="B3B4"/>
    <trip id="veh210" type="veh_passenger" depart="1080.00" departLane="best" departSpeed="max" from="B0B1" to="B3B4"/>
    <trip id="veh211" type="veh_passenger" depart="1085.14" departLane="best" departSpeed="max" from="C4C3" to="B3B4"/>
    <trip id="veh212" type="veh_passenger" depart="1090.29" departLane="best" departSpeed="max" from="C0C1" to="C1C2"/>
    <trip id="veh213" type="veh_passenger" depart="1095.43" departLane="best" departSpeed="max" from="E1D1" to="D1D0"/>
    <trip id="veh214" type="veh_passenger" depart="1100.57" departLane="best" departSpeed="max" from="D4D3" to="C1C0"/>
    <trip id="veh215" type="veh_passenger" depart="1105.71" departLane="best" departSpeed="max" from="E1D1" to="C2D2"/>
    <trip id="veh216" type="veh_passenger" depart="1110.86" departLane="best" departSpeed="max" from="C4C3" to="C3C4"/>
    <trip id="veh217" type="veh_passenger" depart="1116.00" departLane="best" from="D3C3" to="C1C0"/>
    <trip id="veh218" type="veh_passenger" depart="1121.14" departLane="best" departSpeed="max" from="A2B2" to="B1A1"/>
    <trip id="veh219" type="veh_passenger" depart="1126.29" departLane="best" departSpeed="max" from="B0B1" to="B1A1"/>
    <trip id="veh220" type="veh_passenger" depart="1131.43" departLane="best" departSpeed="max" from="E2D2" to="C2B2"/>
    <trip id="veh221" type="veh_passenger" depart="1136.57" departLane="best" from="D3D2" to="B1A1"/>
    <trip id="veh222" type="veh_passenger" depart="1141.71" departLane="best" from="C1D1" to="D3D4"/>
    <trip id="veh223" type="veh_passenger" depart="1146.86" departLane="best" departSpeed="max" from="D0D1" to="C1C0"/>
    <trip id="veh224" type="veh_passenger" depart="1152.00" departLane="best" from="C1D1" to="B1B0"/>
    <trip id="veh225" type="veh_passenger" depart="1157.14" departLane="best" departSpeed="max" from="A3B3" to="B2A2"/>
    <trip id="veh226" type="veh_passenger" depart="1162.29" departLane="best" departSpeed="max" from="B4B3" to="C1B1"/>
    <trip id="veh227" type="veh_passenger" depart="1167.43" departLane="best" departSpeed="max" from="E1D1" to="B2A2"/>
    <trip id="veh228" type="veh_passenger" depart="1172.57" departLane="best" from="B1C1" to="B3A3"/>
    <trip id="veh229" type="veh_passenger" depart="1177.71" departLane="best" departSpeed="max" from="A3B3" to="B3A3"/>
    <trip id="veh230" type="veh_passenger" depart="1182.86" departLane="best" departSpeed="max" from="B0B1" to="C2B2"/>
    <trip id="veh231" type="veh_passenger" depart="1188.00" departLane="best" departSpeed="max" from="A1B1" to="D3D4"/>
    <trip id="veh232" type="veh_passenger" depart="1193.14" departLane="best" departSpeed="max" from="B4B3" to="D3D4"/>
    <trip id="veh233" type="veh_passenger" depart="1198.29" departLane="best" from="D2D1" to="D1D0"/>
    <trip id="veh234" type="veh_passenger" depart="1203.43" departLane="best" from="C1D1" to="D3E3"/>
    <trip id="veh235" type="veh_passenger" depart="1208.57" departLane="best" departSpeed="max" from="A2B2" to="D1D0"/>
    <trip id="veh236" type="veh_passenger" depart="1213.71" departLane="best" from="B2C2" to="D1D0"/>
    <trip id="veh237" type="veh_passenger" depart="1218.86" departLane="best" from="D2D3" to="B2A2"/>
    <trip id="veh238" type="veh_passenger" depart="1224.00" departLane="best" departSpeed="max" from="B0B1" to="B1A1"/>
    <trip id="veh239" type="veh_passenger" depart="1229.14" departLane="best" departSpeed="max" from="B0B1" to="B1B0"/>
    <trip id="veh240" type="veh_passenger" depart="1234.29" departLane="best" departSpeed="max" from="C0C1" to="D3E3"/>
    <trip id="veh241" type="veh_passenger" depart="1239.43" departLane="best" departSpeed="max" from="B4B3" to="B3B4"/>
    <trip id="veh242" type="veh_passenger" depart="1244.57" departLane="best" from="C1D1" to="B3A3"/>
    <trip id="veh243" type="veh_passenger" depart="1249.71" departLane="best" from="D2D3" to="D1E1"/>
    <trip id="veh244" type="veh_passenger" depart="1254.86" departLane="best" departSpeed="max" from="A3B3" to="B3A3"/>
    <trip id="veh245" type="veh_passenger" depart="1260.00" departLane="best" departSpeed="max" from="D0D1" to="D3E3"/>
    <trip id="veh246" type="veh_passenger" depart="1265.14" departLane="best" departSpeed="max" from="D0D1" to="C1C0"/>
    <trip id="veh247" type="veh_passenger" depart="1270.29" departLane="best" departSpeed="max" from="E3D3" to="B1A1"/>
    <trip id="veh248" type="veh_passenger" depart="1275.43" departLane="best" departSpeed="max" from="A2B2" to="D2D1"/>
    <trip id="veh249" type="veh_passenger" depart="1280.57" departLane="best" departSpeed="max" from="C0C1" to="B1A1"/>
    <trip id="veh250" type="veh_passenger" depart="1285.71" departLane="best" from="C3D3" to="D3E3"/>
    <trip id="veh251" type="veh_passenger" depart="1290.86" departLane="best" from="C2D2" to="B3B4"/>
    <trip id="veh252" type="veh_passenger" depart="1296.00" departLane="best" departSpeed="max" from="A2B2" to="B1B0"/>
    <trip id="veh253" type="veh_passenger" depart="1301.14" departLane="best" departSpeed="max" from="E2D2" to="C2C1"/>